https://en.wikipedia.org//wiki/Public_company
https://en.wikipedia.org//wiki/Ticker_symbol
https://en.wikipedia.org//wiki/Nasdaq
https://en.wikipedia.org//wiki/Nasdaq-100
https://en.wikipedia.org//wiki/S%26P_500
https://en.wikipedia.org//wiki/Computer_software
https://en.wikipedia.org//wiki/Canonsburg,_Pennsylvania
https://en.wikipedia.org//wiki/United_States_dollar
https://en.wikipedia.org//wiki/Earnings_before_interest_and_taxes
https://en.wikipedia.org//wiki/Net_income
https://en.wikipedia.org//wiki/Asset
https://en.wikipedia.org//wiki/Equity_(finance)
https://en.wikipedia.org//wiki/Canonsburg,_Pennsylvania
https://en.wikipedia.org//wiki/Computer-aided_engineering
https://en.wikipedia.org//wiki/Multiphysics
https://en.wikipedia.org//wiki/John_A._Swanson
https://en.wikipedia.org//wiki/NASDAQ
https://en.wikipedia.org//wiki/Westinghouse_Astronuclear_Laboratory
https://en.wikipedia.org//wiki/Finite_element_analysis
https://en.wikipedia.org//wiki/Pittsburgh
https://en.wikipedia.org//wiki/Finite_element_analysis
https://en.wikipedia.org//wiki/TA_Associates
https://en.wikipedia.org//wiki/United_States_Dollar
https://en.wikipedia.org//wiki/Hydrodynamics
https://en.wikipedia.org//wiki/OptiSLang
https://en.wikipedia.org//wiki/Zemax
https://en.wikipedia.org//wiki/Finite_element_analysis
https://en.wikipedia.org//wiki/VAXstation
https://en.wikipedia.org//wiki/DOS
https://en.wikipedia.org//wiki/Apple_II
https://en.wikipedia.org//wiki/Autodesk
https://en.wikipedia.org//wiki/Fluid%E2%80%93structure_interaction
https://en.wikipedia.org//wiki/U.S._Securities_and_Exchange_Commission
https://en.wikipedia.org//wiki/ISBN_(identifier)
https://en.wikipedia.org//wiki/ISBN_(identifier)
https://en.wikipedia.org//wiki/ISBN_(identifier)
https://en.wikipedia.org//wiki/Doi_(identifier)
https://en.wikipedia.org//wiki/ISSN_(identifier)
https://en.wikipedia.org//wiki/ISBN_(identifier)
https://en.wikipedia.org//wiki/ISBN_(identifier)
https://en.wikipedia.org//wiki/Doi_(identifier)
https://en.wikipedia.org//wiki/ISSN_(identifier)
https://en.wikipedia.org//wiki/ISBN_(identifier)
https://en.wikipedia.org//wiki/Computer-aided_engineering
https://en.wikipedia.org//wiki/Advanced_Simulation_Library
https://en.wikipedia.org//wiki/Calculix
https://en.wikipedia.org//wiki/Code_Saturne
https://en.wikipedia.org//wiki/Deal.II
https://en.wikipedia.org//wiki/Elmer_FEM_solver
https://en.wikipedia.org//wiki/FEniCS_Project
https://en.wikipedia.org//wiki/FreeFem%2B%2B
https://en.wikipedia.org//wiki/Gerris_(software)
https://en.wikipedia.org//wiki/GetFEM%2B%2B
https://en.wikipedia.org//wiki/MOOSE_(software)
https://en.wikipedia.org//wiki/Open_Cascade_Technology
https://en.wikipedia.org//wiki/OpenFOAM
https://en.wikipedia.org//wiki/QBlade
https://en.wikipedia.org//wiki/Salome_(software)
https://en.wikipedia.org//wiki/Stanford_University_Unstructured
https://en.wikipedia.org//wiki/Abaqus
https://en.wikipedia.org//wiki/Actran
https://en.wikipedia.org//wiki/ADINA
https://en.wikipedia.org//wiki/Altair_Engineering
https://en.wikipedia.org//wiki/Autodesk_Simulation
https://en.wikipedia.org//wiki/AVL_(engineering_company)
https://en.wikipedia.org//wiki/CATIA
https://en.wikipedia.org//wiki/COMSOL_Multiphysics
https://en.wikipedia.org//wiki/Computer_Simulation_Technology
https://en.wikipedia.org//wiki/DIANA_FEA
https://en.wikipedia.org//wiki/FEATool_Multiphysics
https://en.wikipedia.org//wiki/Femap
https://en.wikipedia.org//wiki/Fluent,_Inc.
https://en.wikipedia.org//wiki/FORAN_System
https://en.wikipedia.org//wiki/JCMsuite
https://en.wikipedia.org//wiki/JMAG
https://en.wikipedia.org//wiki/KIVA_(software)
https://en.wikipedia.org//wiki/LS-DYNA
https://en.wikipedia.org//wiki/MSC_Adams
https://en.wikipedia.org//wiki/MSC_Marc
https://en.wikipedia.org//wiki/Nastran
https://en.wikipedia.org//wiki/PTC_Creo
https://en.wikipedia.org//wiki/RFEM
https://en.wikipedia.org//wiki/SESAM_(FEM)
https://en.wikipedia.org//wiki/Siemens_NX
https://en.wikipedia.org//wiki/Simcenter_STAR-CCM%2B
https://en.wikipedia.org//wiki/SolidWorks
https://en.wikipedia.org//wiki/SimScale
https://en.wikipedia.org//wiki/CONSELF
https://en.wikipedia.org//wiki/Onshape
https://en.wikipedia.org//wiki/Pittsburgh
https://en.wikipedia.org//wiki/Pittsburgh%E2%80%93New_Castle%E2%80%93Weirton_combined_statistical_area
https://en.wikipedia.org//wiki/Fortune_500
https://en.wikipedia.org//wiki/Alcoa
https://en.wikipedia.org//wiki/Dick%27s_Sporting_Goods
https://en.wikipedia.org//wiki/Howmet_Aerospace
https://en.wikipedia.org//wiki/Kraft_Heinz
https://en.wikipedia.org//wiki/PNC_Financial_Services
https://en.wikipedia.org//wiki/PPG_Industries
https://en.wikipedia.org//wiki/US_Steel
https://en.wikipedia.org//wiki/WESCO_International
https://en.wikipedia.org//wiki/84_Lumber
https://en.wikipedia.org//wiki/Giant_Eagle
https://en.wikipedia.org//wiki/Allegheny_Technologies
https://en.wikipedia.org//wiki/American_Bridge_Company
https://en.wikipedia.org//wiki/American_Eagle_Outfitters
https://en.wikipedia.org//wiki/Ampco_Pittsburgh
https://en.wikipedia.org//wiki/Arconic
https://en.wikipedia.org//wiki/Armstrong_Group_of_Companies
https://en.wikipedia.org//wiki/Atlas_Energy
https://en.wikipedia.org//wiki/Augustine%27s_Pizza
https://en.wikipedia.org//wiki/Black_Box_Corporation
https://en.wikipedia.org//wiki/Bruster%27s_Ice_Cream
https://en.wikipedia.org//wiki/Calgon_Carbon
https://en.wikipedia.org//wiki/Compunetix
https://en.wikipedia.org//wiki/Consol_Energy
https://en.wikipedia.org//wiki/Dollar_Bank
https://en.wikipedia.org//wiki/Duquesne_Light_Company
https://en.wikipedia.org//wiki/Eat%27n_Park
https://en.wikipedia.org//wiki/EQT
https://en.wikipedia.org//wiki/Federated_Investors
https://en.wikipedia.org//wiki/Fiesta_Tableware_Company
https://en.wikipedia.org//wiki/GNC_(store)
https://en.wikipedia.org//wiki/Guru.com
https://en.wikipedia.org//wiki/Highmark
https://en.wikipedia.org//wiki/Industrial_Scientific_Corporation
https://en.wikipedia.org//wiki/Iron_City_Brewing_Company
https://en.wikipedia.org//wiki/Kennametal
https://en.wikipedia.org//wiki/Koppers
https://en.wikipedia.org//wiki/MARC_USA
https://en.wikipedia.org//wiki/Millcraft_Investments
https://en.wikipedia.org//wiki/Mine_Safety_Appliances
https://en.wikipedia.org//wiki/Niche_(company)
https://en.wikipedia.org//wiki/Oxford_Development
https://en.wikipedia.org//wiki/PTC_Alliance
https://en.wikipedia.org//wiki/Renda_Broadcasting
https://en.wikipedia.org//wiki/Rue21
https://en.wikipedia.org//wiki/Sarris_Candies
https://en.wikipedia.org//wiki/University_of_Pittsburgh_Medical_Center
https://en.wikipedia.org//wiki/Vocelli_Pizza
https://en.wikipedia.org//wiki/Wabtec
https://en.wikipedia.org//wiki/ModCloth
https://en.wikipedia.org//wiki/Nova_Chemicals
https://en.wikipedia.org//wiki/Allegheny_Energy
https://en.wikipedia.org//wiki/FedEx_Ground
https://en.wikipedia.org//wiki/GSK_plc
https://en.wikipedia.org//wiki/Lanxess
https://en.wikipedia.org//wiki/Respironics
https://en.wikipedia.org//wiki/Vivisimo
https://en.wikipedia.org//wiki/Westinghouse_Electric_Company
https://en.wikipedia.org//wiki/BNY_Mellon
https://en.wikipedia.org//wiki/Dreyfus_Corporation
https://en.wikipedia.org//wiki/Eaton_Corporation
https://en.wikipedia.org//wiki/Spreadshirt
https://en.wikipedia.org//wiki/Macy%27s
https://en.wikipedia.org//wiki/Fisher%27s_Big_Wheel
https://en.wikipedia.org//wiki/BodyMedia
https://en.wikipedia.org//wiki/Clark_Bar
https://en.wikipedia.org//wiki/Dravo_Corporation
https://en.wikipedia.org//wiki/Education_Management_Corporation
https://en.wikipedia.org//wiki/Fisher_Scientific
https://en.wikipedia.org//wiki/Integra_Bank_(Pittsburgh)
https://en.wikipedia.org//wiki/Mesta_Machinery
https://en.wikipedia.org//wiki/GC_Murphy
https://en.wikipedia.org//wiki/Gulf_Oil
https://en.wikipedia.org//wiki/Jones_%26_Laughlin_Steel_Company
https://en.wikipedia.org//wiki/Ketchum_Inc
https://en.wikipedia.org//wiki/Rockwell_International
https://en.wikipedia.org//wiki/Sunbeam_Products
https://en.wikipedia.org//wiki/Telerama
https://en.wikipedia.org//wiki/Westinghouse_Electric_Corporation
https://en.wikipedia.org//wiki/List_of_corporations_in_Pittsburgh
https://en.wikipedia.org//wiki/Nasdaq-100
https://en.wikipedia.org//wiki/Activision_Blizzard
https://en.wikipedia.org//wiki/Adobe_Inc.
https://en.wikipedia.org//wiki/Advanced_Micro_Devices
https://en.wikipedia.org//wiki/Airbnb
https://en.wikipedia.org//wiki/Align_Technology
https://en.wikipedia.org//wiki/Alphabet_Inc.
https://en.wikipedia.org//wiki/Amazon_(company)
https://en.wikipedia.org//wiki/American_Electric_Power
https://en.wikipedia.org//wiki/Amgen
https://en.wikipedia.org//wiki/Analog_Devices
https://en.wikipedia.org//wiki/Apple_Inc.
https://en.wikipedia.org//wiki/Applied_Materials
https://en.wikipedia.org//wiki/ASML_Holding
https://en.wikipedia.org//wiki/AstraZeneca
https://en.wikipedia.org//wiki/Atlassian
https://en.wikipedia.org//wiki/Autodesk
https://en.wikipedia.org//wiki/ADP_(company)
https://en.wikipedia.org//wiki/Baidu
https://en.wikipedia.org//wiki/Biogen
https://en.wikipedia.org//wiki/Booking_Holdings
https://en.wikipedia.org//wiki/Broadcom_Inc.
https://en.wikipedia.org//wiki/Cadence_Design_Systems
https://en.wikipedia.org//wiki/Charter_Communications
https://en.wikipedia.org//wiki/Cintas
https://en.wikipedia.org//wiki/Cisco
https://en.wikipedia.org//wiki/Cognizant
https://en.wikipedia.org//wiki/Comcast
https://en.wikipedia.org//wiki/Constellation_Energy
https://en.wikipedia.org//wiki/Copart
https://en.wikipedia.org//wiki/Costco
https://en.wikipedia.org//wiki/CrowdStrike
https://en.wikipedia.org//wiki/CSX_Corporation
https://en.wikipedia.org//wiki/Datadog
https://en.wikipedia.org//wiki/Dexcom
https://en.wikipedia.org//wiki/DocuSign
https://en.wikipedia.org//wiki/Dollar_Tree
https://en.wikipedia.org//wiki/EBay
https://en.wikipedia.org//wiki/Electronic_Arts
https://en.wikipedia.org//wiki/Exelon
https://en.wikipedia.org//wiki/Fastenal
https://en.wikipedia.org//wiki/Fiserv
https://en.wikipedia.org//wiki/Fortinet
https://en.wikipedia.org//wiki/Gilead_Sciences
https://en.wikipedia.org//wiki/Honeywell
https://en.wikipedia.org//wiki/Idexx_Laboratories
https://en.wikipedia.org//wiki/Illumina,_Inc.
https://en.wikipedia.org//wiki/Intel
https://en.wikipedia.org//wiki/Intuit
https://en.wikipedia.org//wiki/Intuitive_Surgical
https://en.wikipedia.org//wiki/JD.com
https://en.wikipedia.org//wiki/Keurig_Dr_Pepper
https://en.wikipedia.org//wiki/KLA_Corporation
https://en.wikipedia.org//wiki/Kraft_Heinz
https://en.wikipedia.org//wiki/Lam_Research
https://en.wikipedia.org//wiki/Lucid_Motors
https://en.wikipedia.org//wiki/Lululemon
https://en.wikipedia.org//wiki/Marriott_International
https://en.wikipedia.org//wiki/Marvell_Technology_Group
https://en.wikipedia.org//wiki/Match_Group
https://en.wikipedia.org//wiki/MercadoLibre
https://en.wikipedia.org//wiki/Meta_Platforms
https://en.wikipedia.org//wiki/Microchip_Technology
https://en.wikipedia.org//wiki/Micron_Technology
https://en.wikipedia.org//wiki/Microsoft
https://en.wikipedia.org//wiki/Moderna
https://en.wikipedia.org//wiki/Mondelez_International
https://en.wikipedia.org//wiki/Monster_Beverage
https://en.wikipedia.org//wiki/NetEase
https://en.wikipedia.org//wiki/Netflix
https://en.wikipedia.org//wiki/Nvidia
https://en.wikipedia.org//wiki/NXP
https://en.wikipedia.org//wiki/O%27Reilly_Auto_Parts
https://en.wikipedia.org//wiki/Okta,_Inc.
https://en.wikipedia.org//wiki/Old_Dominion_Freight_Line
https://en.wikipedia.org//wiki/Paccar
https://en.wikipedia.org//wiki/Palo_Alto_Networks
https://en.wikipedia.org//wiki/Paychex
https://en.wikipedia.org//wiki/PayPal
https://en.wikipedia.org//wiki/PepsiCo
https://en.wikipedia.org//wiki/Pinduoduo
https://en.wikipedia.org//wiki/Qualcomm
https://en.wikipedia.org//wiki/Regeneron
https://en.wikipedia.org//wiki/Ross_Stores
https://en.wikipedia.org//wiki/Seagen
https://en.wikipedia.org//wiki/Sirius_XM
https://en.wikipedia.org//wiki/Skyworks_Solutions
https://en.wikipedia.org//wiki/Splunk
https://en.wikipedia.org//wiki/Starbucks
https://en.wikipedia.org//wiki/Synopsys
https://en.wikipedia.org//wiki/T-Mobile_US
https://en.wikipedia.org//wiki/Tesla,_Inc.
https://en.wikipedia.org//wiki/Texas_Instruments
https://en.wikipedia.org//wiki/Verisign
https://en.wikipedia.org//wiki/Verisk
https://en.wikipedia.org//wiki/Vertex_Pharmaceuticals
https://en.wikipedia.org//wiki/Walgreens_Boots_Alliance
https://en.wikipedia.org//wiki/Workday,_Inc.
https://en.wikipedia.org//wiki/Xcel_Energy
https://en.wikipedia.org//wiki/Zoom_Video_Communications
https://en.wikipedia.org//wiki/Zscaler
https://en.wikipedia.org//wiki/ISNI_(identifier)
https://en.wikipedia.org//wiki/VIAF_(identifier)